opendss_networks/LV13_58bus/Loads.dss
new load.Ld284_LOAD_A phases=1 bus1=B251.1.4 kv=0.249992666559  vminpu=0.1 vmaxpu=2
new load.Ld409_LOAD_B phases=1 bus1=B2943.2.4 kv=0.249992666559  vminpu=0.1 vmaxpu=2
new load.Ld1297_LOAD_C phases=1 bus1=B1995.3.4 kv=0.249992666559  vminpu=0.1 vmaxpu=2
new load.Ld1553_LOAD_A phases=1 bus1=B816.1.4 kv=0.249992666559  vminpu=0.1 vmaxpu=2
new load.Ld2690_LOAD_B phases=1 bus1=B1207.2.4 kv=0.249992666559  vminpu=0.1 vmaxpu=2
new load.Ld2766_LOAD_C phases=1 bus1=B760.3.4 kv=0.249992666559  vminpu=0.1 vmaxpu=2
new load.Ld2847_LOAD_A phases=1 bus1=B2720.1.4 kv=0.249992666559  vminpu=0.1 vmaxpu=2
new load.Ld3423_LOAD_B phases=1 bus1=B1073.2.4 kv=0.249992666559  vminpu=0.1 vmaxpu=2
new load.Ld3530_LOAD_C phases=1 bus1=B250.3.4 kv=0.249992666559  vminpu=0.1 vmaxpu=2
new load.Ld4202_LOAD_A phases=1 bus1=B1033.1.4 kv=0.249992666559  vminpu=0.1 vmaxpu=2
new load.Ld4405_LOAD_B phases=1 bus1=B1463.2.4 kv=0.249992666559  vminpu=0.1 vmaxpu=2
